Hello ji
new list is updated....!
have look here


new line....after feature
